
**** 12/11/23 21:46:47 ********* PSpice 9.2 (Mar 2000) ******** ID# 1 ********

 * C:\Users\zelle\Desktop\\2\3\\8\Lab8.sch


 ****     CIRCUIT DESCRIPTION


******************************************************************************




* Schematics Version 9.2
* Mon Dec 11 21:46:47 2023



** Analysis setup **
.tran 20ns 200us


* From [PSPICE NETLIST] section of C:\Program Files\Orcad\PSpice\PSpice.ini:
.lib "nom.lib"

.INC "Lab8.net"



**** INCLUDING Lab8.net ****
* Schematics Netlist *



L_L1         $N_0001 $N_0002  31mH  
C_C1         $N_0003 $N_0001  5.6n  
R_R1         $N_0002 $N_0004  110  
V_V1         $N_0003 0  
+PULSE 0 1 0 0 0 20u 200u
R_R2         $N_0004 0  10k  

**** RESUMING Lab8.cir ****
.PROBE V(*) I(*) W(*) D(*) NOISE(*) 


.END

**** 12/11/23 21:46:47 ********* PSpice 9.2 (Mar 2000) ******** ID# 1 ********

 * C:\Users\zelle\Desktop\\2\3\\8\Lab8.sch


 ****     INITIAL TRANSIENT SOLUTION       TEMPERATURE =   27.000 DEG C


******************************************************************************



 NODE   VOLTAGE     NODE   VOLTAGE     NODE   VOLTAGE     NODE   VOLTAGE


($N_0001)    0.0000                   ($N_0002)    0.0000                       

($N_0003)    0.0000                   ($N_0004)    0.0000                   




    VOLTAGE SOURCE CURRENTS
    NAME         CURRENT

    V_V1         0.000E+00

    TOTAL POWER DISSIPATION   0.00E+00  WATTS



          JOB CONCLUDED

          TOTAL JOB TIME             .02
