
**** 02/27/24 02:03:28 ********* PSpice 9.2 (Mar 2000) ******** ID# 1 ********

 * C:\Users\zelle\Desktop\\2\4\\lab1\Orcad\FVC.sch


 ****     CIRCUIT DESCRIPTION


******************************************************************************




* Schematics Version 9.2
* Tue Feb 27 02:03:27 2024



** Analysis setup **
.ac LIN 10000 10 220.00K


* From [PSPICE NETLIST] section of C:\Program Files\Orcad\PSpice\PSpice.ini:
.lib "nom.lib"

.INC "FVC.net"



**** INCLUDING FVC.net ****
* Schematics Netlist *



V_V1         $N_0001 0 DC 0V AC 1V 
C_C2         $N_0001 $N_0002  15n  
R_R2         0 $N_0002  20k  

**** RESUMING FVC.cir ****
.PROBE V(*) I(*) W(*) D(*) NOISE(*) 


.END

**** 02/27/24 02:03:28 ********* PSpice 9.2 (Mar 2000) ******** ID# 1 ********

 * C:\Users\zelle\Desktop\\2\4\\lab1\Orcad\FVC.sch


 ****     SMALL SIGNAL BIAS SOLUTION       TEMPERATURE =   27.000 DEG C


******************************************************************************



 NODE   VOLTAGE     NODE   VOLTAGE     NODE   VOLTAGE     NODE   VOLTAGE


($N_0001)    0.0000                   ($N_0002)    0.0000                   




    VOLTAGE SOURCE CURRENTS
    NAME         CURRENT

    V_V1         0.000E+00

    TOTAL POWER DISSIPATION   0.00E+00  WATTS



          JOB CONCLUDED

          TOTAL JOB TIME             .28
